<?xml version="1.0" encoding="UTF-8"?>

<!-- generated on 2025-09-07 12:11:05 by Eclipse SUMO netedit Version 1.24.0
<neteditConfiguration xmlns:xsi="http://www.w3.org/2001/XMLSchema-instance" xsi:noNamespaceSchemaLocation="http://sumo.dlr.de/xsd/neteditConfiguration.xsd">

    <input>
        <sumocfg-file value="C:\Users\abish\Downloads\Test\f1.sumocfg"/>
        <sumo-net-file value="C:\Users\abish\Downloads\Test\f1.net.xml"/>
    </input>

    <output>
        <output-file value="C:\Users\abish\Downloads\Test\f1.net.xml"/>
    </output>

    <processing>
        <offset.disable-normalization value="true"/>
    </processing>

    <junctions>
        <no-turnarounds value="true"/>
    </junctions>

    <netedit>
        <new-network value="false"/>
    </netedit>

</neteditConfiguration>
-->

<net version="1.20" junctionCornerDetail="5" limitTurnSpeed="5.50" xmlns:xsi="http://www.w3.org/2001/XMLSchema-instance" xsi:noNamespaceSchemaLocation="http://sumo.dlr.de/xsd/net_file.xsd">

    <location netOffset="0.00,0.00" convBoundary="-80.17,-32.68,71.68,37.80" origBoundary="10000000000.00,10000000000.00,-10000000000.00,-10000000000.00" projParameter="!"/>

    <edge id=":clusterJ10_J14_J15_J16_0" function="internal">
        <lane id=":clusterJ10_J14_J15_J16_0_0" index="0" speed="6.74" length="9.61" shape="-6.97,3.95 -9.67,4.30 -11.61,5.37 -12.80,7.15 -13.23,9.64"/>
    </edge>
    <edge id=":clusterJ10_J14_J15_J16_1" function="internal">
        <lane id=":clusterJ10_J14_J15_J16_1_0" index="0" speed="13.89" length="14.99" shape="-6.97,3.95 -21.96,3.96"/>
    </edge>
    <edge id=":clusterJ10_J14_J15_J16_2" function="internal">
        <lane id=":clusterJ10_J14_J15_J16_2_0" index="0" speed="7.99" length="4.07" shape="-6.97,3.95 -10.82,3.40 -10.97,3.31"/>
    </edge>
    <edge id=":clusterJ10_J14_J15_J16_12" function="internal">
        <lane id=":clusterJ10_J14_J15_J16_12_0" index="0" speed="7.99" length="10.14" shape="-10.97,3.31 -13.57,1.75 -15.22,-1.01 -15.76,-4.87"/>
    </edge>
    <edge id=":clusterJ10_J14_J15_J16_3" function="internal">
        <lane id=":clusterJ10_J14_J15_J16_3_0" index="0" speed="6.50" length="9.03" shape="-12.56,-4.86 -12.21,-2.41 -11.17,-0.65 -9.42,0.40 -6.97,0.74"/>
    </edge>
    <edge id=":clusterJ10_J14_J15_J16_4" function="internal">
        <lane id=":clusterJ10_J14_J15_J16_4_0" index="0" speed="13.89" length="14.52" shape="-12.56,-4.86 -13.23,9.64"/>
    </edge>
    <edge id=":clusterJ10_J14_J15_J16_5" function="internal">
        <lane id=":clusterJ10_J14_J15_J16_5_0" index="0" speed="7.94" length="4.32" shape="-12.56,-4.86 -13.43,-1.67 -14.05,-0.87"/>
    </edge>
    <edge id=":clusterJ10_J14_J15_J16_13" function="internal">
        <lane id=":clusterJ10_J14_J15_J16_13_0" index="0" speed="7.94" length="9.60" shape="-14.05,-0.87 -15.65,1.16 -18.68,3.18 -21.96,3.96"/>
    </edge>
    <edge id=":clusterJ10_J14_J15_J16_6" function="internal">
        <lane id=":clusterJ10_J14_J15_J16_6_0" index="0" speed="6.68" length="9.54" shape="-21.96,0.76 -19.25,0.40 -17.32,-0.65 -16.15,-2.41 -15.76,-4.87"/>
    </edge>
    <edge id=":clusterJ10_J14_J15_J16_7" function="internal">
        <lane id=":clusterJ10_J14_J15_J16_7_0" index="0" speed="13.89" length="14.99" shape="-21.96,0.76 -6.97,0.74"/>
    </edge>
    <edge id=":clusterJ10_J14_J15_J16_8" function="internal">
        <lane id=":clusterJ10_J14_J15_J16_8_0" index="0" speed="7.97" length="4.09" shape="-21.96,0.76 -18.08,1.31 -17.94,1.39"/>
    </edge>
    <edge id=":clusterJ10_J14_J15_J16_14" function="internal">
        <lane id=":clusterJ10_J14_J15_J16_14_0" index="0" speed="7.97" length="10.19" shape="-17.94,1.39 -15.33,2.97 -13.71,5.75 -13.23,9.64"/>
    </edge>
    <edge id=":clusterJ10_J14_J15_J16_9" function="internal">
        <lane id=":clusterJ10_J14_J15_J16_9_0" index="0" speed="6.47" length="9.03" shape="-16.43,9.58 -16.74,7.12 -17.76,5.36 -19.50,4.31 -21.96,3.96"/>
    </edge>
    <edge id=":clusterJ10_J14_J15_J16_10" function="internal">
        <lane id=":clusterJ10_J14_J15_J16_10_0" index="0" speed="13.89" length="14.47" shape="-16.43,9.58 -15.76,-4.87"/>
    </edge>
    <edge id=":clusterJ10_J14_J15_J16_11" function="internal">
        <lane id=":clusterJ10_J14_J15_J16_11_0" index="0" speed="8.00" length="4.25" shape="-16.43,9.58 -15.53,6.38 -14.96,5.66"/>
    </edge>
    <edge id=":clusterJ10_J14_J15_J16_15" function="internal">
        <lane id=":clusterJ10_J14_J15_J16_15_0" index="0" speed="8.00" length="9.72" shape="-14.96,5.66 -13.29,3.55 -10.26,1.52 -6.97,0.74"/>
    </edge>

    <edge id="-E0" from="J1" to="clusterJ10_J14_J15_J16" priority="-1" shape="71.68,2.29 -8.28,2.35">
        <lane id="-E0_0" index="0" speed="13.89" length="78.65" shape="71.68,3.89 -6.97,3.95"/>
    </edge>
    <edge id="-E0.79" from="clusterJ10_J14_J15_J16" to="J0" priority="-1" shape="-8.28,2.35 -80.17,2.40">
        <lane id="-E0.79_0" index="0" speed="13.89" length="58.21" shape="-21.96,3.96 -80.17,4.00"/>
    </edge>
    <edge id="-E2" from="J11" to="clusterJ10_J14_J15_J16" priority="-1" shape="-14.05,-32.68 -14.16,-3.70">
        <lane id="-E2_0" index="0" speed="13.89" length="27.82" shape="-12.45,-32.67 -12.56,-4.86"/>
    </edge>
    <edge id="-E3" from="clusterJ10_J14_J15_J16" to="J13" priority="-1" shape="-14.81,8.61 -15.36,37.80">
        <lane id="-E3_0" index="0" speed="13.89" length="28.19" shape="-13.23,9.64 -13.76,37.83"/>
    </edge>
    <edge id="E0" from="J0" to="clusterJ10_J14_J15_J16" priority="-1" shape="-80.17,2.40 -16.88,2.35">
        <lane id="E0_0" index="0" speed="13.89" length="58.21" shape="-80.18,0.80 -21.96,0.76"/>
    </edge>
    <edge id="E0.63" from="clusterJ10_J14_J15_J16" to="J1" priority="-1" shape="-16.88,2.35 71.68,2.29">
        <lane id="E0.63_0" index="0" speed="13.89" length="78.65" shape="-6.97,0.74 71.68,0.69"/>
    </edge>
    <edge id="E2" from="clusterJ10_J14_J15_J16" to="J11" priority="-1" shape="-14.16,-3.70 -14.05,-32.68">
        <lane id="E2_0" index="0" speed="13.89" length="27.82" shape="-15.76,-4.87 -15.65,-32.69"/>
    </edge>
    <edge id="E3" from="J13" to="clusterJ10_J14_J15_J16" priority="-1" shape="-15.36,37.80 -14.81,8.61">
        <lane id="E3_0" index="0" speed="13.89" length="28.19" shape="-16.96,37.77 -16.43,9.58"/>
    </edge>

    <tlLogic id="clusterJ10_J14_J15_J16" type="static" programID="0" offset="0">
        <phase duration="42" state="GGgrrrGGgrrr"/>
        <phase duration="3"  state="yyyrrryyyrrr"/>
        <phase duration="42" state="rrrGGgrrrGGg"/>
        <phase duration="3"  state="rrryyyrrryyy"/>
    </tlLogic>

    <junction id="J0" type="dead_end" x="-80.17" y="2.40" incLanes="-E0.79_0" intLanes="" shape="-80.17,2.40 -80.17,5.60 -80.17,2.40"/>
    <junction id="J1" type="dead_end" x="71.68" y="2.29" incLanes="E0.63_0" intLanes="" shape="71.68,2.29 71.68,-0.91 71.68,2.29"/>
    <junction id="J11" type="dead_end" x="-14.05" y="-32.68" incLanes="E2_0" intLanes="" shape="-14.05,-32.68 -17.25,-32.69 -14.05,-32.68"/>
    <junction id="J13" type="dead_end" x="-15.36" y="37.80" incLanes="-E3_0" intLanes="" shape="-15.36,37.80 -12.16,37.86 -15.36,37.80"/>
    <junction id="clusterJ10_J14_J15_J16" type="traffic_light" x="-13.53" y="2.40" incLanes="-E0_0 -E2_0 E0_0 E3_0" intLanes=":clusterJ10_J14_J15_J16_0_0 :clusterJ10_J14_J15_J16_1_0 :clusterJ10_J14_J15_J16_12_0 :clusterJ10_J14_J15_J16_3_0 :clusterJ10_J14_J15_J16_4_0 :clusterJ10_J14_J15_J16_13_0 :clusterJ10_J14_J15_J16_6_0 :clusterJ10_J14_J15_J16_7_0 :clusterJ10_J14_J15_J16_14_0 :clusterJ10_J14_J15_J16_9_0 :clusterJ10_J14_J15_J16_10_0 :clusterJ10_J14_J15_J16_15_0" shape="-6.97,5.55 -6.97,-0.86 -9.19,-1.30 -9.97,-1.85 -10.52,-2.63 -10.85,-3.63 -10.96,-4.85 -17.36,-4.88 -17.87,-2.64 -18.51,-1.85 -19.41,-1.29 -20.56,-0.96 -21.96,-0.84 -21.96,5.56 -19.74,6.00 -18.98,6.55 -18.44,7.33 -18.12,8.33 -18.03,9.55 -11.63,9.67 -11.08,7.38 -10.42,6.58 -9.52,6.01 -8.37,5.66">
        <request index="0"  response="000000000000" foes="000100010000" cont="0"/>
        <request index="1"  response="100000100000" foes="111100110000" cont="0"/>
        <request index="2"  response="100111100000" foes="110111110000" cont="1"/>
        <request index="3"  response="000010000000" foes="100010000000" cont="0"/>
        <request index="4"  response="000110000111" foes="100110000111" cont="0"/>
        <request index="5"  response="011110000110" foes="011110000110" cont="1"/>
        <request index="6"  response="000000000000" foes="010000000100" cont="0"/>
        <request index="7"  response="100000100000" foes="110000111100" cont="0"/>
        <request index="8"  response="100000100011" foes="110000110111" cont="1"/>
        <request index="9"  response="000000000010" foes="000000100010" cont="0"/>
        <request index="10" response="000111000110" foes="000111100110" cont="0"/>
        <request index="11" response="000110011110" foes="000110011110" cont="1"/>
    </junction>

    <junction id=":clusterJ10_J14_J15_J16_12_0" type="internal" x="-10.97" y="3.31" incLanes=":clusterJ10_J14_J15_J16_2_0 E0_0" intLanes=":clusterJ10_J14_J15_J16_4_0 :clusterJ10_J14_J15_J16_5_0 :clusterJ10_J14_J15_J16_6_0 :clusterJ10_J14_J15_J16_7_0 :clusterJ10_J14_J15_J16_10_0 :clusterJ10_J14_J15_J16_11_0"/>
    <junction id=":clusterJ10_J14_J15_J16_13_0" type="internal" x="-14.05" y="-0.87" incLanes=":clusterJ10_J14_J15_J16_5_0 E3_0" intLanes=":clusterJ10_J14_J15_J16_1_0 :clusterJ10_J14_J15_J16_2_0 :clusterJ10_J14_J15_J16_7_0 :clusterJ10_J14_J15_J16_8_0 :clusterJ10_J14_J15_J16_9_0 :clusterJ10_J14_J15_J16_10_0"/>
    <junction id=":clusterJ10_J14_J15_J16_14_0" type="internal" x="-17.94" y="1.39" incLanes=":clusterJ10_J14_J15_J16_8_0 -E0_0" intLanes=":clusterJ10_J14_J15_J16_0_0 :clusterJ10_J14_J15_J16_1_0 :clusterJ10_J14_J15_J16_4_0 :clusterJ10_J14_J15_J16_5_0 :clusterJ10_J14_J15_J16_10_0 :clusterJ10_J14_J15_J16_11_0"/>
    <junction id=":clusterJ10_J14_J15_J16_15_0" type="internal" x="-14.96" y="5.66" incLanes=":clusterJ10_J14_J15_J16_11_0 -E2_0" intLanes=":clusterJ10_J14_J15_J16_1_0 :clusterJ10_J14_J15_J16_2_0 :clusterJ10_J14_J15_J16_3_0 :clusterJ10_J14_J15_J16_4_0 :clusterJ10_J14_J15_J16_7_0 :clusterJ10_J14_J15_J16_8_0"/>

    <connection from="-E0" to="-E3" fromLane="0" toLane="0" via=":clusterJ10_J14_J15_J16_0_0" tl="clusterJ10_J14_J15_J16" linkIndex="0" dir="r" state="O"/>
    <connection from="-E0" to="-E0.79" fromLane="0" toLane="0" via=":clusterJ10_J14_J15_J16_1_0" tl="clusterJ10_J14_J15_J16" linkIndex="1" dir="s" state="O"/>
    <connection from="-E0" to="E2" fromLane="0" toLane="0" via=":clusterJ10_J14_J15_J16_2_0" tl="clusterJ10_J14_J15_J16" linkIndex="2" dir="l" state="o"/>
    <connection from="-E2" to="E0.63" fromLane="0" toLane="0" via=":clusterJ10_J14_J15_J16_3_0" tl="clusterJ10_J14_J15_J16" linkIndex="3" dir="r" state="o"/>
    <connection from="-E2" to="-E3" fromLane="0" toLane="0" via=":clusterJ10_J14_J15_J16_4_0" tl="clusterJ10_J14_J15_J16" linkIndex="4" dir="s" state="o"/>
    <connection from="-E2" to="-E0.79" fromLane="0" toLane="0" via=":clusterJ10_J14_J15_J16_5_0" tl="clusterJ10_J14_J15_J16" linkIndex="5" dir="l" state="o"/>
    <connection from="E0" to="E2" fromLane="0" toLane="0" via=":clusterJ10_J14_J15_J16_6_0" tl="clusterJ10_J14_J15_J16" linkIndex="6" dir="r" state="O"/>
    <connection from="E0" to="E0.63" fromLane="0" toLane="0" via=":clusterJ10_J14_J15_J16_7_0" tl="clusterJ10_J14_J15_J16" linkIndex="7" dir="s" state="O"/>
    <connection from="E0" to="-E3" fromLane="0" toLane="0" via=":clusterJ10_J14_J15_J16_8_0" tl="clusterJ10_J14_J15_J16" linkIndex="8" dir="l" state="o"/>
    <connection from="E3" to="-E0.79" fromLane="0" toLane="0" via=":clusterJ10_J14_J15_J16_9_0" tl="clusterJ10_J14_J15_J16" linkIndex="9" dir="r" state="o"/>
    <connection from="E3" to="E2" fromLane="0" toLane="0" via=":clusterJ10_J14_J15_J16_10_0" tl="clusterJ10_J14_J15_J16" linkIndex="10" dir="s" state="o"/>
    <connection from="E3" to="E0.63" fromLane="0" toLane="0" via=":clusterJ10_J14_J15_J16_11_0" tl="clusterJ10_J14_J15_J16" linkIndex="11" dir="l" state="o"/>

    <connection from=":clusterJ10_J14_J15_J16_0" to="-E3" fromLane="0" toLane="0" dir="r" state="M"/>
    <connection from=":clusterJ10_J14_J15_J16_1" to="-E0.79" fromLane="0" toLane="0" dir="s" state="M"/>
    <connection from=":clusterJ10_J14_J15_J16_2" to="E2" fromLane="0" toLane="0" via=":clusterJ10_J14_J15_J16_12_0" dir="l" state="m"/>
    <connection from=":clusterJ10_J14_J15_J16_12" to="E2" fromLane="0" toLane="0" dir="l" state="M"/>
    <connection from=":clusterJ10_J14_J15_J16_3" to="E0.63" fromLane="0" toLane="0" dir="r" state="M"/>
    <connection from=":clusterJ10_J14_J15_J16_4" to="-E3" fromLane="0" toLane="0" dir="s" state="M"/>
    <connection from=":clusterJ10_J14_J15_J16_5" to="-E0.79" fromLane="0" toLane="0" via=":clusterJ10_J14_J15_J16_13_0" dir="l" state="m"/>
    <connection from=":clusterJ10_J14_J15_J16_13" to="-E0.79" fromLane="0" toLane="0" dir="l" state="M"/>
    <connection from=":clusterJ10_J14_J15_J16_6" to="E2" fromLane="0" toLane="0" dir="r" state="M"/>
    <connection from=":clusterJ10_J14_J15_J16_7" to="E0.63" fromLane="0" toLane="0" dir="s" state="M"/>
    <connection from=":clusterJ10_J14_J15_J16_8" to="-E3" fromLane="0" toLane="0" via=":clusterJ10_J14_J15_J16_14_0" dir="l" state="m"/>
    <connection from=":clusterJ10_J14_J15_J16_14" to="-E3" fromLane="0" toLane="0" dir="l" state="M"/>
    <connection from=":clusterJ10_J14_J15_J16_9" to="-E0.79" fromLane="0" toLane="0" dir="r" state="M"/>
    <connection from=":clusterJ10_J14_J15_J16_10" to="E2" fromLane="0" toLane="0" dir="s" state="M"/>
    <connection from=":clusterJ10_J14_J15_J16_11" to="E0.63" fromLane="0" toLane="0" via=":clusterJ10_J14_J15_J16_15_0" dir="l" state="m"/>
    <connection from=":clusterJ10_J14_J15_J16_15" to="E0.63" fromLane="0" toLane="0" dir="l" state="M"/>

</net>
