<?xml version="1.0" encoding="UTF-8"?>

<!-- generated on 2025-09-07 12:16:20 by Eclipse SUMO sumo Version 1.24.0
-->

<sumoConfiguration xmlns:xsi="http://www.w3.org/2001/XMLSchema-instance" xsi:noNamespaceSchemaLocation="http://sumo.dlr.de/xsd/sumoConfiguration.xsd">

    <input>
        <net-file value="f1.net.xml"/>
        <route-files value="f1.rou.xml"/>
        <junction-taz value="true"/>
    </input>

</sumoConfiguration>
