<?xml version="1.0" encoding="UTF-8"?>

<!-- generated on 2025-09-05 15:20:16 by Eclipse SUMO netedit Version 1.24.0
<neteditConfiguration xmlns:xsi="http://www.w3.org/2001/XMLSchema-instance" xsi:noNamespaceSchemaLocation="http://sumo.dlr.de/xsd/neteditConfiguration.xsd">

    <input>
        <sumocfg-file value="C:\Users\hp\OneDrive\Desktop\SUMO\newsumo.sumocfg"/>
        <route-files value="C:\Users\hp\OneDrive\Desktop\SUMO\newsumo.rou.xml"/>
        <sumo-net-file value="C:\Users\hp\OneDrive\Desktop\SUMO\NETWORK0.XML"/>
    </input>

    <output>
        <output-file value="C:\Users\hp\OneDrive\Desktop\SUMO\NETWORK0.XML"/>
    </output>

    <processing>
        <geometry.min-radius.fix.railways value="false"/>
        <geometry.avoid-overlap value="false"/>
        <geometry.max-grade.fix value="false"/>
        <offset.disable-normalization value="true"/>
        <lefthand value="1"/>
    </processing>

    <junctions>
        <no-internal-links value="true"/>
        <no-turnarounds value="true"/>
        <junctions.corner-detail value="5"/>
        <junctions.limit-turn-speed value="5.50"/>
        <rectangular-lane-cut value="0"/>
    </junctions>

    <pedestrian>
        <walkingareas value="0"/>
    </pedestrian>

    <netedit>
        <ignore.routeelements value="false"/>
    </netedit>

</neteditConfiguration>
-->

<net version="1.20" junctionCornerDetail="5" lefthand="true" limitTurnSpeed="5.50" avoidOverlap="0" xmlns:xsi="http://www.w3.org/2001/XMLSchema-instance" xsi:noNamespaceSchemaLocation="http://sumo.dlr.de/xsd/net_file.xsd">

    <location netOffset="-796615.04,-1254350.10" convBoundary="769.61,0.00,1195.59,665.90" origBoundary="77.717389,11.334418,77.737037,11.346844" projParameter="+proj=utm +zone=43 +ellps=WGS84 +datum=WGS84 +units=m +no_defs"/>

    <type id="highway.primary" priority="12" numLanes="2" speed="27.78" disallow="tram rail_urban rail rail_electric rail_fast ship container cable_car subway aircraft wheelchair scooter drone" oneway="0"/>
    <type id="highway.residential" priority="3" numLanes="1" speed="13.89" disallow="tram rail_urban rail rail_electric rail_fast ship container cable_car subway aircraft wheelchair scooter drone" oneway="0"/>

    <edge id="J001_L01_IN" from="cluster_314624560_9933928205" to="J001" priority="12" type="highway.primary" spreadType="center" shape="769.61,531.62 854.81,537.09 883.98,535.43 963.04,532.88 976.83,535.64">
        <lane id="J001_L01_IN_0" index="0" disallow="tram rail_urban rail rail_electric rail_fast ship container cable_car subway aircraft wheelchair scooter drone" speed="27.78" length="215.34" shape="769.44,533.21 854.80,538.69 884.05,537.03 962.91,534.49 965.98,535.10"/>
        <lane id="J001_L01_IN_1" index="1" disallow="tram rail_urban rail rail_electric rail_fast ship container cable_car subway aircraft wheelchair scooter drone" speed="27.78" length="215.34" shape="769.86,530.03 854.82,535.49 883.91,533.83 963.17,531.27 966.33,531.91"/>
        <param key="ref" value="SH96"/>
    </edge>
    <edge id="J001_L01_OUT" from="J001" to="cluster_314624560_9933928205" priority="12" type="highway.primary" spreadType="center" shape="977.55,529.35 955.67,526.86 936.33,526.30 832.40,528.71 810.71,526.73 769.82,527.31">
        <lane id="J001_L01_OUT_0" index="0" disallow="tram rail_urban rail rail_electric rail_fast ship container cable_car subway aircraft wheelchair scooter drone" speed="27.78" length="211.20" shape="966.93,526.53 955.78,525.26 936.33,524.70 832.45,527.11 810.77,525.13 769.80,525.71"/>
        <lane id="J001_L01_OUT_1" index="1" disallow="tram rail_urban rail rail_electric rail_fast ship container cable_car subway aircraft wheelchair scooter drone" speed="27.78" length="211.20" shape="966.58,529.71 955.56,528.46 936.33,527.90 832.35,530.31 810.65,528.33 769.84,528.91"/>
        <param key="ref" value="SH96"/>
    </edge>
    <edge id="J001_L02_IN" from="314628054" to="J001" priority="12" type="highway.primary" shape="1103.11,0.00 1098.93,21.39 1087.74,57.93 1064.56,152.18 1042.94,221.93 1015.67,324.40 985.26,456.13 976.73,532.44">
        <lane id="J001_L02_IN_0" index="0" disallow="tram rail_urban rail rail_electric rail_fast ship container cable_car subway aircraft wheelchair scooter drone" speed="27.78" length="548.11" shape="1098.40,-0.92 1094.27,20.22 1083.11,56.65 1059.93,150.90 1038.33,220.60 1011.01,323.24 980.52,455.32 973.25,520.35"/>
        <lane id="J001_L02_IN_1" index="1" disallow="tram rail_urban rail rail_electric rail_fast ship container cable_car subway aircraft wheelchair scooter drone" speed="27.78" length="548.11" shape="1101.54,-0.31 1097.38,21.00 1086.20,57.50 1063.02,151.75 1041.40,221.49 1014.12,324.01 983.68,455.86 976.43,520.71"/>
        <param key="ref" value="SH79"/>
    </edge>
    <edge id="J001_L02_OUT" from="J001" to="314628054" priority="12" type="highway.primary" shape="976.73,532.44 985.26,456.13 1015.67,324.40 1042.94,221.93 1064.56,152.18 1087.74,57.93 1098.93,21.39 1103.11,0.00">
        <lane id="J001_L02_OUT_0" index="0" disallow="tram rail_urban rail rail_electric rail_fast ship container cable_car subway aircraft wheelchair scooter drone" speed="27.78" length="548.11" shape="982.79,521.42 990.00,456.94 1020.33,325.56 1047.55,223.26 1069.19,153.46 1092.37,59.21 1103.59,22.56 1107.82,0.92"/>
        <lane id="J001_L02_OUT_1" index="1" disallow="tram rail_urban rail rail_electric rail_fast ship container cable_car subway aircraft wheelchair scooter drone" speed="27.78" length="548.11" shape="979.61,521.06 986.84,456.40 1017.22,324.79 1044.48,222.37 1066.10,152.61 1089.28,58.36 1100.48,21.78 1104.68,0.31"/>
        <param key="ref" value="SH79"/>
    </edge>
    <edge id="J001_L03_IN" from="314624050" to="J001" priority="12" type="highway.primary" shape="1195.59,521.09 1127.54,522.99 1111.65,523.94 976.73,532.44">
        <lane id="J001_L03_IN_0" index="0" disallow="tram rail_urban rail rail_electric rail_fast ship container cable_car subway aircraft wheelchair scooter drone" speed="27.78" length="219.18" shape="1195.46,516.29 1127.33,518.19 1111.36,519.15 988.03,526.92"/>
        <lane id="J001_L03_IN_1" index="1" disallow="tram rail_urban rail rail_electric rail_fast ship container cable_car subway aircraft wheelchair scooter drone" speed="27.78" length="219.18" shape="1195.55,519.49 1127.47,521.39 1111.55,522.34 988.23,530.11"/>
        <param key="ref" value="SH79"/>
    </edge>
    <edge id="J001_L03_OUT" from="J001" to="314624050" priority="12" type="highway.primary" shape="976.73,532.44 1111.65,523.94 1127.54,522.99 1195.59,521.09">
        <lane id="J001_L03_OUT_0" index="0" disallow="tram rail_urban rail rail_electric rail_fast ship container cable_car subway aircraft wheelchair scooter drone" speed="27.78" length="219.18" shape="988.63,536.50 1111.95,528.73 1127.75,527.79 1195.72,525.89"/>
        <lane id="J001_L03_OUT_1" index="1" disallow="tram rail_urban rail rail_electric rail_fast ship container cable_car subway aircraft wheelchair scooter drone" speed="27.78" length="219.18" shape="988.43,533.31 1111.75,525.54 1127.61,524.59 1195.63,522.69"/>
        <param key="ref" value="SH79"/>
    </edge>
    <edge id="J001_L04_IN" from="842047405" to="J001" priority="3" type="highway.residential" shape="898.65,665.67 971.24,665.90 977.50,636.97 986.53,624.97 976.73,532.44">
        <lane id="J001_L04_IN_0" index="0" disallow="tram rail_urban rail rail_electric rail_fast ship container cable_car subway aircraft wheelchair scooter drone" speed="13.89" length="210.26" shape="898.64,667.27 972.53,667.50 978.99,637.65 988.19,625.43 979.43,542.76"/>
    </edge>
    <edge id="J001_L04_OUT" from="J001" to="842047405" priority="3" type="highway.residential" shape="976.73,532.44 986.53,624.97 977.50,636.97 971.24,665.90 898.65,665.67">
        <lane id="J001_L04_OUT_0" index="0" disallow="tram rail_urban rail rail_electric rail_fast ship container cable_car subway aircraft wheelchair scooter drone" speed="13.89" length="210.26" shape="976.25,543.09 984.87,624.51 976.01,636.29 969.95,664.30 898.66,664.07"/>
    </edge>

    <tlLogic id="J001" type="static" programID="0" offset="0">
        <phase duration="30" state="rrrrrrrrrrrgGGg"/>
        <phase duration="6"  state="rrrrrrrrrrryyyy"/>
        <phase duration="30" state="GGgrrrrrrrrrrrr"/>
        <phase duration="6"  state="yyyrrrrrrrrrrrr"/>
        <phase duration="30" state="rrrggggrrrrrrrr"/>
        <phase duration="6"  state="rrryyyyrrrrrrrr"/>
        <phase duration="30" state="rrrrrrrggggrrrr"/>
        <phase duration="6"  state="rrrrrrryyyyrrrr"/>
    </tlLogic>

    <junction id="314624050" type="dead_end" x="1195.59" y="521.09" incLanes="J001_L03_OUT_0 J001_L03_OUT_1" intLanes="" shape="1195.59,521.09 1195.77,527.49 1195.59,521.09"/>
    <junction id="314628054" type="dead_end" x="1103.11" y="0.00" incLanes="J001_L02_OUT_0 J001_L02_OUT_1" intLanes="" shape="1103.11,-0.00 1109.39,1.23 1103.11,-0.00"/>
    <junction id="842047405" type="dead_end" x="898.65" y="665.67" incLanes="J001_L04_OUT_0" intLanes="" shape="898.65,665.67 898.66,662.47 898.65,665.67"/>
    <junction id="J001" type="traffic_light" x="976.73" y="532.44" incLanes="J001_L02_IN_0 J001_L02_IN_1 J001_L03_IN_0 J001_L03_IN_1 J001_L04_IN_0 J001_L01_IN_0 J001_L01_IN_1" intLanes="" shape="971.66,520.18 984.38,521.60 984.58,523.78 985.05,524.52 985.76,525.02 986.72,525.29 987.93,525.32 988.73,538.10 986.26,538.36 984.26,538.82 982.74,539.48 981.69,540.32 981.12,541.36 981.02,542.59 974.66,543.26 973.44,540.36 972.19,539.17 970.49,538.17 968.37,537.34 965.80,536.70 967.10,524.94 969.38,524.61 970.23,523.98 970.90,523.02 971.37,521.76">
        <request index="0"  response="000000000110000" foes="000000000110000"/>
        <request index="1"  response="111100001110000" foes="111110001110000"/>
        <request index="2"  response="111001101110000" foes="111001101110000"/>
        <request index="3"  response="000000000000000" foes="000001100000000"/>
        <request index="4"  response="000000000000000" foes="100011100000111"/>
        <request index="5"  response="000000000000000" foes="100011100000111"/>
        <request index="6"  response="011100000000000" foes="011111100000110"/>
        <request index="7"  response="011000000000000" foes="011000000000000"/>
        <request index="8"  response="111000001111000" foes="111000001111100"/>
        <request index="9"  response="111000001111000" foes="111000001111100"/>
        <request index="10" response="111000001110010" foes="111000001110010"/>
        <request index="11" response="000000000000000" foes="000000001000010"/>
        <request index="12" response="000000000000000" foes="000011111000110"/>
        <request index="13" response="000000000000000" foes="000011111000110"/>
        <request index="14" response="000000000110000" foes="000011100110110"/>
    </junction>
    <junction id="cluster_314624560_9933928205" type="dead_end" x="769.82" y="527.31" incLanes="J001_L01_OUT_0 J001_L01_OUT_1" intLanes="" shape="769.75,528.42 769.34,534.81 769.77,524.11 769.87,530.51"/>

    <connection from="J001_L01_IN" to="J001_L04_OUT" fromLane="0" toLane="0" tl="J001" linkIndex="11" dir="l" state="O"/>
    <connection from="J001_L01_IN" to="J001_L03_OUT" fromLane="0" toLane="0" tl="J001" linkIndex="12" dir="s" state="O"/>
    <connection from="J001_L01_IN" to="J001_L03_OUT" fromLane="1" toLane="1" tl="J001" linkIndex="13" dir="s" state="O"/>
    <connection from="J001_L01_IN" to="J001_L02_OUT" fromLane="1" toLane="1" tl="J001" linkIndex="14" dir="r" state="o"/>
    <connection from="J001_L02_IN" to="J001_L01_OUT" fromLane="0" toLane="0" tl="J001" linkIndex="0" dir="l" state="o"/>
    <connection from="J001_L02_IN" to="J001_L04_OUT" fromLane="0" toLane="0" tl="J001" linkIndex="1" dir="s" state="o"/>
    <connection from="J001_L02_IN" to="J001_L03_OUT" fromLane="1" toLane="1" tl="J001" linkIndex="2" dir="r" state="o"/>
    <connection from="J001_L03_IN" to="J001_L02_OUT" fromLane="0" toLane="0" tl="J001" linkIndex="3" dir="l" state="O"/>
    <connection from="J001_L03_IN" to="J001_L01_OUT" fromLane="0" toLane="0" tl="J001" linkIndex="4" dir="s" state="O"/>
    <connection from="J001_L03_IN" to="J001_L01_OUT" fromLane="1" toLane="1" tl="J001" linkIndex="5" dir="s" state="O"/>
    <connection from="J001_L03_IN" to="J001_L04_OUT" fromLane="1" toLane="0" tl="J001" linkIndex="6" dir="r" state="o"/>
    <connection from="J001_L04_IN" to="J001_L03_OUT" fromLane="0" toLane="0" tl="J001" linkIndex="7" dir="l" state="o"/>
    <connection from="J001_L04_IN" to="J001_L02_OUT" fromLane="0" toLane="0" tl="J001" linkIndex="8" dir="s" state="o"/>
    <connection from="J001_L04_IN" to="J001_L02_OUT" fromLane="0" toLane="1" tl="J001" linkIndex="9" dir="s" state="o"/>
    <connection from="J001_L04_IN" to="J001_L01_OUT" fromLane="0" toLane="1" tl="J001" linkIndex="10" dir="r" state="o"/>

</net>
