<?xml version="1.0" encoding="UTF-8"?>

<!-- generated on 2025-09-05 15:16:17 by Eclipse SUMO netedit Version 1.24.0
-->

<routes xmlns:xsi="http://www.w3.org/2001/XMLSchema-instance" xsi:noNamespaceSchemaLocation="http://sumo.dlr.de/xsd/routes_file.xsd">
    <!-- Vehicles, persons and containers (sorted by depart) -->
    <flow id="f_0" begin="0.00" from="J001_L04_IN" to="J001_L01_OUT" end="3600.00" number="1800"/>
    <flow id="f_1" begin="0.00" from="J001_L01_IN" to="J001_L02_OUT" end="3600.00" number="1800"/>
    <flow id="f_2" begin="0.00" from="J001_L03_IN" to="J001_L04_OUT" end="3600.00" number="1800"/>
    <flow id="f_3" begin="0.00" from="J001_L02_IN" to="J001_L03_OUT" end="3600.00" number="1800"/>
</routes>
